pglib-scots/SCOTS-Slack/slack_relative_quadratic/pglib_opf_case200_activ_scots.m
%%%%%%%%%%%%%%%%%%%%%%%%%%%%%%%%%%%%%%%%%%%%%%%%%%%%%%%%%%%%%%%%%%%%%%%%%%%
%%%%                                                                  %%%%%
%%%%    This is a modified SCOTS-feasible instance adapted from the   %%%%%
%%%%                                :                                 %%%%%
%%%%    IEEE PES Power Grid Library - Optimal Power Flow - v21.07     %%%%%
%%%%          (https://github.com/power-grid-lib/pglib-opf)           %%%%%
%%%%               Benchmark Group - Typical Operations               %%%%%
%%%%                         29 - July - 2021                         %%%%%
%%%%                                                                  %%%%%
%%%%%%%%%%%%%%%%%%%%%%%%%%%%%%%%%%%%%%%%%%%%%%%%%%%%%%%%%%%%%%%%%%%%%%%%%%%
%
%   This is an entirely synthetic 200 bus case, geographically situated
%   in the central part of the US state of Illinois. The case is
%   designed with a 230 and 115 kV transmission network to serve
%   a load that roughly mimics the actual population of its geographic
%   footprint. The synthetic transmission system was designed by
%   algorithms described in [1] to be statistically similar to actual
%   transmission system models but without modeling any actual lines.
%
%   When publishing results based on this data, please cite:
%
%   [1] A.B. Birchfield, T. Xu, K.M. Gegner, K.S. Shetye, T.J. Overbye,
%       "Grid Structural Characteristics as Validation Criteria for
%       Synthetic Networks," IEEE Transactions on Power Systems, 2017.
%
%   This is a synthetic power system model that does not represent the
%   actual grid. It was developed as part of the US ARPA-E GRID DATA
%   research project and contains no CEII.
%
%   One-line diagrams and other data formats available at:
%       https://electricgrids.engr.tamu.edu
%
%   May 16, 2017
%
%   Created from ACTIV_SG_200.pwb, saved by
%   PowerWorld Simulator, version 20 Beta, build date May 19, 2017,
%   then by MATPOWER 6.
%
%   Copyright (c) 2017 by A.B. Birchfield, T. Xu, K.M. Gegner, K.S. Shetye,
%   and T.J. Overbye
%   Licensed under the Creative Commons Attribution 4.0 International license,
%   http://creativecommons.org/licenses/by/4.0/
%
%% MATPOWER Case Format : Version 2
function mpc = pglib_opf_case200_activ
mpc.version = '2';

%%-----  Power Flow Data  -----%%
%% system MVA base
mpc.baseMVA = 100.0;
%% bus data
%    bus_i    type    Pd    Qd    Gs    Bs    area    Vm    Va    baseKV    zone    Vmax    Vmin
mpc.bus = [
	1	1	0.0	0.0	0.0	0.0	1	1.0	0.0	115.0	2	1.1	0.9				
	2	1	7.39	2.1	0.0	0.0	1	1.0	0.0	115.0	2	1.1	0.9				
	3	1	0.0	0.0	0.0	0.0	1	1.0	0.0	115.0	4	1.1	0.9				
	4	1	1.7	0.48	0.0	0.0	1	1.0	0.0	115.0	4	1.1	0.9				
	5	1	0.0	0.0	0.0	0.0	1	1.0	0.0	115.0	6	1.1	0.9				
	6	1	7.95	2.26	0.0	0.0	1	1.0	0.0	115.0	6	1.1	0.9				
	7	1	0.0	0.0	0.0	0.0	1	1.0	0.0	115.0	2	1.1	0.9				
	8	1	23.74	6.77	0.0	0.0	1	1.0	0.0	115.0	2	1.1	0.9				
	9	1	0.0	0.0	0.0	0.0	1	1.0	0.0	115.0	2	1.1	0.9				
	10	1	42.68	12.16	0.0	0.0	1	1.0	0.0	115.0	2	1.1	0.9				
	11	1	0.0	0.0	0.0	0.0	1	1.0	0.0	115.0	4	1.1	0.9				
	12	1	0.3	0.09	0.0	0.0	1	1.0	0.0	115.0	4	1.1	0.9				
	13	1	2.52	0.72	0.0	0.0	1	1.0	0.0	115.0	4	1.1	0.9				
	14	1	0.0	0.0	0.0	0.0	1	1.0	0.0	230.0	4	1.1	0.9				
	15	1	0.0	0.0	0.0	30.0	1	1.0	0.0	115.0	4	1.1	0.9				
	16	1	44.76	12.76	0.0	0.0	1	1.0	0.0	115.0	4	1.1	0.9				
	17	1	0.0	0.0	0.0	0.0	1	1.0	0.0	115.0	4	1.1	0.9				
	18	1	0.71	0.2	0.0	0.0	1	1.0	0.0	115.0	4	1.1	0.9				
	19	1	0.77	0.22	0.0	0.0	1	1.0	0.0	115.0	4	1.1	0.9				
	20	1	1.13	0.32	0.0	0.0	1	1.0	0.0	115.0	4	1.1	0.9				
	21	1	4.61	1.31	0.0	0.0	1	1.0	0.0	115.0	4	1.1	0.9				
	22	1	0.0	0.0	0.0	0.0	1	1.0	0.0	115.0	4	1.1	0.9				
	23	1	1.41	0.4	0.0	0.0	1	1.0	0.0	115.0	4	1.1	0.9				
	24	1	2.4	0.68	0.0	0.0	1	1.0	0.0	115.0	4	1.1	0.9				
	25	1	0.0	0.0	0.0	0.0	1	1.0	0.0	115.0	6	1.1	0.9				
	26	1	1.35	0.39	0.0	0.0	1	1.0	0.0	115.0	6	1.1	0.9				
	27	1	0.0	0.0	0.0	0.0	1	1.0	0.0	115.0	4	1.1	0.9				
	28	1	2.33	0.67	0.0	0.0	1	1.0	0.0	115.0	4	1.1	0.9				
	29	1	0.0	0.0	0.0	0.0	1	1.0	0.0	115.0	2	1.1	0.9				
	30	1	59.09	16.84	0.0	0.0	1	1.0	0.0	115.0	2	1.1	0.9				
	31	1	0.0	0.0	0.0	0.0	1	1.0	0.0	115.0	7	1.1	0.9				
	32	1	0.51	0.15	0.0	0.0	1	1.0	0.0	115.0	7	1.1	0.9				
	33	1	6.44	1.84	0.0	0.0	1	1.0	0.0	115.0	7	1.1	0.9				
	34	1	0.0	0.0	0.0	0.0	1	1.0	0.0	115.0	4	1.1	0.9				
	35	1	20.76	5.92	0.0	0.0	1	1.0	0.0	115.0	4	1.1	0.9				
	36	1	0.0	0.0	0.0	0.0	1	1.0	0.0	115.0	7	1.1	0.9				
	37	1	3.57	1.02	0.0	0.0	1	1.0	0.0	115.0	7	1.1	0.9				
	38	1	29.81	8.5	0.0	0.0	1	1.0	0.0	115.0	7	1.1	0.9				
	39	1	7.41	2.11	0.0	0.0	1	1.0	0.0	115.0	4	1.1	0.9				
	40	1	2.04	0.58	0.0	0.0	1	1.0	0.0	115.0	4	1.1	0.9				
	41	1	38.34	10.93	0.0	0.0	1	1.0	0.0	115.0	5	1.1	0.9				
	42	1	10.62	3.03	0.0	0.0	1	1.0	0.0	115.0	4	1.1	0.9				
	43	1	2.09	0.59	0.0	0.0	1	1.0	0.0	115.0	2	1.1	0.9				
	44	1	4.15	1.18	0.0	0.0	1	1.0	0.0	115.0	4	1.1	0.9				
	45	1	0.0	0.0	0.0	0.0	1	1.0	0.0	230.0	7	1.1	0.9				
	46	1	6.34	1.81	0.0	0.0	1	1.0	0.0	115.0	7	1.1	0.9				
	47	1	1.54	0.44	0.0	0.0	1	1.0	0.0	115.0	4	1.1	0.9				
	48	1	1.82	0.52	0.0	0.0	1	1.0	0.0	115.0	6	1.1	0.9				
	49	2	0.0	0.0	0.0	0.0	1	1.0	0.0	13.8	6	1.1	0.9				
	50	2	0.0	0.0	0.0	0.0	1	1.0	0.0	13.8	6	1.1	0.9				
	51	2	0.0	0.0	0.0	0.0	1	1.0	0.0	13.8	6	1.1	0.9				
	52	2	0.0	0.0	0.0	0.0	1	1.0	0.0	13.8	6	1.1	0.9				
	53	2	0.0	0.0	0.0	0.0	1	1.0	0.0	13.8	6	1.1	0.9				
	54	1	2.66	0.76	0.0	0.0	1	1.0	0.0	115.0	4	1.1	0.9				
	55	1	0.0	0.0	0.0	0.0	1	1.0	0.0	230.0	7	1.1	0.9				
	56	1	1.31	0.37	0.0	0.0	1	1.0	0.0	115.0	7	1.1	0.9				
	57	1	2.82	0.8	0.0	0.0	1	1.0	0.0	115.0	4	1.1	0.9				
	58	1	4.23	1.21	0.0	0.0	1	1.0	0.0	115.0	7	1.1	0.9				
	59	1	4.73	1.35	0.0	0.0	1	1.0	0.0	115.0	2	1.1	0.9				
	60	1	3.8	1.08	0.0	0.0	1	1.0	0.0	115.0	2	1.1	0.9				
	61	1	20.55	5.86	0.0	0.0	1	1.0	0.0	115.0	7	1.1	0.9				
	62	1	21.41	6.1	0.0	0.0	1	1.0	0.0	115.0	4	1.1	0.9				
	63	1	7.98	2.27	0.0	0.0	1	1.0	0.0	115.0	4	1.1	0.9				
	64	1	0.0	0.0	0.0	0.0	1	1.0	0.0	115.0	6	1.1	0.9				
	65	2	0.0	0.0	0.0	0.0	1	1.0	0.0	13.8	6	1.1	0.9				
	66	1	0.0	0.0	0.0	0.0	1	1.0	0.0	115.0	4	1.1	0.9				
	67	2	0.0	0.0	0.0	0.0	1	1.0	0.0	13.8	4	1.1	0.9				
	68	2	0.0	0.0	0.0	0.0	1	1.0	0.0	13.8	4	1.1	0.9				
	69	2	0.0	0.0	0.0	0.0	1	1.0	0.0	13.8	4	1.1	0.9				
	70	2	0.0	0.0	0.0	0.0	1	1.0	0.0	13.8	4	1.1	0.9				
	71	2	0.0	0.0	0.0	0.0	1	1.0	0.0	13.8	4	1.1	0.9				
	72	2	0.0	0.0	0.0	0.0	1	1.0	0.0	13.8	4	1.1	0.9				
	73	2	0.0	0.0	0.0	0.0	1	1.0	0.0	13.8	4	1.1	0.9				
	74	1	18.76	5.35	0.0	0.0	1	1.0	0.0	115.0	6	1.1	0.9				
	75	1	3.6	1.03	0.0	0.0	1	1.0	0.0	115.0	2	1.1	0.9				
	76	2	0.0	0.0	0.0	0.0	1	1.0	0.0	13.8	2	1.1	0.9				
	77	2	0.0	0.0	0.0	0.0	1	1.0	0.0	13.8	2	1.1	0.9				
	78	1	0.0	0.0	0.0	0.0	1	1.0	0.0	13.8	2	1.1	0.9				
	79	1	0.0	0.0	0.0	0.0	1	1.0	0.0	13.8	2	1.1	0.9				
	80	1	1.48	0.42	0.0	0.0	1	1.0	0.0	115.0	5	1.1	0.9				
	81	1	0.0	0.0	0.0	0.0	1	1.0	0.0	230.0	6	1.1	0.9				
	82	1	7.6	2.17	0.0	0.0	1	1.0	0.0	115.0	6	1.1	0.9				
	83	1	3.14	0.89	0.0	0.0	1	1.0	0.0	115.0	7	1.1	0.9				
	84	1	3.75	1.07	0.0	0.0	1	1.0	0.0	115.0	2	1.1	0.9				
	85	1	4.83	1.38	0.0	0.0	1	1.0	0.0	115.0	4	1.1	0.9				
	86	1	8.25	2.35	0.0	0.0	1	1.0	0.0	115.0	2	1.1	0.9				
	87	1	0.0	0.0	0.0	0.0	1	1.0	0.0	230.0	3	1.1	0.9				
	88	1	49.34	14.06	0.0	0.0	1	1.0	0.0	115.0	3	1.1	0.9				
	89	1	62.85	17.91	0.0	0.0	1	1.0	0.0	115.0	7	1.1	0.9				
	90	2	0.0	0.0	0.0	0.0	1	1.0	0.0	13.8	7	1.1	0.9				
	91	2	0.0	0.0	0.0	0.0	1	1.0	0.0	13.8	7	1.1	0.9				
	92	1	0.0	0.0	0.0	0.0	1	1.0	0.0	13.8	7	1.1	0.9				
	93	1	3.06	0.87	0.0	0.0	1	1.0	0.0	115.0	4	1.1	0.9				
	94	2	0.0	0.0	0.0	0.0	1	1.0	0.0	13.8	4	1.1	0.9				
	95	1	3.0	0.85	0.0	30.0	1	1.0	0.0	115.0	7	1.1	0.9				
	96	1	2.96	0.84	0.0	0.0	1	1.0	0.0	115.0	7	1.1	0.9				
	97	1	7.33	2.09	0.0	0.0	1	1.0	0.0	115.0	2	1.1	0.9				
	98	1	0.0	0.0	0.0	0.0	1	1.0	0.0	230.0	2	1.1	0.9				
	99	1	12.17	3.47	0.0	0.0	1	1.0	0.0	115.0	2	1.1	0.9				
	100	1	37.39	10.66	0.0	80.0	1	1.0	0.0	115.0	5	1.1	0.9				
	101	1	0.52	0.15	0.0	0.0	1	1.0	0.0	115.0	2	1.1	0.9				
	102	1	0.0	0.0	0.0	0.0	1	1.0	0.0	230.0	7	1.1	0.9				
	103	1	0.0	0.0	0.0	0.0	1	1.0	0.0	115.0	7	1.1	0.9				
	104	2	0.0	0.0	0.0	0.0	1	1.0	0.0	13.8	7	1.1	0.9				
	105	2	0.0	0.0	0.0	0.0	1	1.0	0.0	13.8	7	1.1	0.9				
	106	1	2.06	0.59	0.0	0.0	1	1.0	0.0	115.0	7	1.1	0.9				
	107	1	52.56	14.98	0.0	0.0	1	1.0	0.0	115.0	7	1.1	0.9				
	108	1	9.42	2.68	0.0	0.0	1	1.0	0.0	115.0	2	1.1	0.9				
	109	1	5.16	1.47	0.0	0.0	1	1.0	0.0	115.0	4	1.1	0.9				
	110	1	10.86	3.09	0.0	0.0	1	1.0	0.0	115.0	2	1.1	0.9				
	111	1	8.82	2.51	0.0	0.0	1	1.0	0.0	115.0	5	1.1	0.9				
	112	1	0.0	0.0	0.0	0.0	1	1.0	0.0	230.0	7	1.1	0.9				
	113	1	0.0	0.0	0.0	0.0	1	1.0	0.0	115.0	7	1.1	0.9				
	114	2	0.0	0.0	0.0	0.0	1	1.0	0.0	13.8	7	1.1	0.9				
	115	2	0.0	0.0	0.0	0.0	1	1.0	0.0	13.8	7	1.1	0.9				
	116	1	0.0	0.0	0.0	0.0	1	1.0	0.0	230.0	2	1.1	0.9				
	117	1	34.08	9.71	0.0	0.0	1	1.0	0.0	115.0	2	1.1	0.9				
	118	1	3.94	1.12	0.0	0.0	1	1.0	0.0	115.0	2	1.1	0.9				
	119	1	17.55	5.0	0.0	0.0	1	1.0	0.0	115.0	2	1.1	0.9				
	120	1	1.8	0.51	0.0	0.0	1	1.0	0.0	115.0	4	1.1	0.9				
	121	1	0.0	0.0	0.0	0.0	1	1.0	0.0	230.0	7	1.1	0.9				
	122	1	15.44	4.4	0.0	0.0	1	1.0	0.0	115.0	7	1.1	0.9				
	123	1	0.0	0.0	0.0	0.0	1	1.0	0.0	230.0	2	1.1	0.9				
	124	1	0.0	0.0	0.0	0.0	1	1.0	0.0	115.0	2	1.1	0.9				
	125	2	0.0	0.0	0.0	0.0	1	1.0	0.0	13.8	2	1.1	0.9				
	126	2	0.0	0.0	0.0	0.0	1	1.0	0.0	13.8	2	1.1	0.9				
	127	2	0.0	0.0	0.0	0.0	1	1.0	0.0	13.8	2	1.1	0.9				
	128	1	0.0	0.0	0.0	0.0	1	1.0	0.0	230.0	7	1.1	0.9				
	129	1	77.24	22.01	0.0	0.0	1	1.0	0.0	115.0	7	1.1	0.9				
	130	1	4.4	1.25	0.0	0.0	1	1.0	0.0	115.0	7	1.1	0.9				
	131	1	30.25	8.62	0.0	0.0	1	1.0	0.0	115.0	2	1.1	0.9				
	132	1	26.96	7.68	0.0	0.0	1	1.0	0.0	115.0	2	1.1	0.9				
	133	1	0.0	0.0	0.0	0.0	1	1.0	0.0	230.0	2	1.1	0.9				
	134	1	0.0	0.0	0.0	0.0	1	1.0	0.0	115.0	2	1.1	0.9				
	135	2	0.0	0.0	0.0	0.0	1	1.0	0.0	13.8	2	1.1	0.9				
	136	2	0.0	0.0	0.0	0.0	1	1.0	0.0	13.8	2	1.1	0.9				
	137	1	1.16	0.33	0.0	0.0	1	1.0	0.0	115.0	4	1.1	0.9				
	138	1	2.09	0.6	0.0	0.0	1	1.0	0.0	115.0	6	1.1	0.9				
	139	1	6.84	1.95	0.0	0.0	1	1.0	0.0	115.0	2	1.1	0.9				
	140	1	8.21	2.34	0.0	0.0	1	1.0	0.0	115.0	2	1.1	0.9				
	141	1	1.42	0.41	0.0	0.0	1	1.0	0.0	115.0	2	1.1	0.9				
	142	1	37.26	10.62	0.0	0.0	1	1.0	0.0	115.0	2	1.1	0.9				
	143	1	26.78	7.63	0.0	0.0	1	1.0	0.0	115.0	5	1.1	0.9				
	144	1	9.05	2.58	0.0	0.0	1	1.0	0.0	115.0	2	1.1	0.9				
	145	1	17.54	5.0	0.0	0.0	1	1.0	0.0	115.0	3	1.1	0.9				
	146	1	0.0	0.0	0.0	0.0	1	1.0	0.0	115.0	7	1.1	0.9				
	147	2	0.0	0.0	0.0	0.0	1	1.0	0.0	13.8	7	1.1	0.9				
	148	1	32.02	9.13	0.0	0.0	1	1.0	0.0	115.0	2	1.1	0.9				
	149	1	0.0	0.0	0.0	0.0	1	1.0	0.0	230.0	3	1.1	0.9				
	150	1	0.0	0.0	0.0	0.0	1	1.0	0.0	115.0	3	1.1	0.9				
	151	2	0.0	0.0	0.0	0.0	1	1.0	0.0	13.8	3	1.1	0.9				
	152	2	0.0	0.0	0.0	0.0	1	1.0	0.0	13.8	3	1.1	0.9				
	153	2	0.0	0.0	0.0	0.0	1	1.0	0.0	13.8	3	1.1	0.9				
	154	2	0.0	0.0	0.0	0.0	1	1.0	0.0	13.8	3	1.1	0.9				
	155	2	0.0	0.0	0.0	0.0	1	1.0	0.0	13.8	3	1.1	0.9				
	156	1	0.0	0.0	0.0	0.0	1	1.0	0.0	230.0	2	1.1	0.9				
	157	1	14.76	4.21	0.0	0.0	1	1.0	0.0	115.0	2	1.1	0.9				
	158	1	8.97	2.56	0.0	0.0	1	1.0	0.0	115.0	4	1.1	0.9				
	159	1	1.39	0.4	0.0	0.0	1	1.0	0.0	115.0	4	1.1	0.9				
	160	1	0.0	0.0	0.0	0.0	1	1.0	0.0	115.0	4	1.1	0.9				
	161	1	0.0	0.0	0.0	0.0	1	1.0	0.0	13.8	4	1.1	0.9				
	162	1	1.45	0.41	0.0	0.0	1	1.0	0.0	115.0	2	1.1	0.9				
	163	1	45.8	13.05	0.0	0.0	1	1.0	0.0	115.0	5	1.1	0.9				
	164	1	0.0	0.0	0.0	0.0	1	1.0	0.0	13.8	5	1.1	0.9				
	165	1	0.0	0.0	0.0	0.0	1	1.0	0.0	13.8	5	1.1	0.9				
	166	1	0.0	0.0	0.0	0.0	1	1.0	0.0	13.8	5	1.1	0.9				
	167	2	0.0	0.0	0.0	0.0	1	1.0	0.0	13.8	5	1.1	0.9				
	168	1	0.0	0.0	0.0	0.0	1	1.0	0.0	13.8	5	1.1	0.9				
	169	1	0.0	0.0	0.0	0.0	1	1.0	0.0	13.8	5	1.1	0.9				
	170	2	0.0	0.0	0.0	0.0	1	1.0	0.0	13.8	5	1.1	0.9				
	171	1	7.94	2.26	0.0	0.0	1	1.0	0.0	115.0	6	1.1	0.9				
	172	1	5.38	1.53	0.0	0.0	1	1.0	0.0	115.0	5	1.1	0.9				
	173	1	8.71	2.48	0.0	0.0	1	1.0	0.0	115.0	5	1.1	0.9				
	174	1	2.77	0.79	0.0	0.0	1	1.0	0.0	115.0	5	1.1	0.9				
	175	1	7.31	2.08	0.0	0.0	1	1.0	0.0	115.0	5	1.1	0.9				
	176	1	19.01	5.42	0.0	0.0	1	1.0	0.0	115.0	3	1.1	0.9				
	177	1	11.29	3.22	0.0	0.0	1	1.0	0.0	115.0	7	1.1	0.9				
	178	1	0.0	0.0	0.0	0.0	1	1.0	0.0	230.0	5	1.1	0.9				
	179	1	23.61	6.73	0.0	0.0	1	1.0	0.0	115.0	5	1.1	0.9				
	180	1	7.74	2.21	0.0	0.0	1	1.0	0.0	115.0	5	1.1	0.9				
	181	1	47.98	13.67	0.0	0.0	1	1.0	0.0	115.0	4	1.1	0.9				
	182	2	0.0	0.0	0.0	0.0	1	1.0	0.0	13.8	4	1.1	0.9				
	183	2	0.0	0.0	0.0	0.0	1	1.0	0.0	13.8	4	1.1	0.9				
	184	1	10.69	3.05	0.0	0.0	1	1.0	0.0	115.0	5	1.1	0.9				
	185	1	10.79	3.07	0.0	0.0	1	1.0	0.0	115.0	3	1.1	0.9				
	186	1	2.1	0.6	0.0	0.0	1	1.0	0.0	115.0	2	1.1	0.9				
	187	1	0.0	0.0	0.0	0.0	1	1.0	0.0	230.0	7	1.1	0.9				
	188	1	0.0	0.0	0.0	0.0	1	1.0	0.0	115.0	7	1.1	0.9				
	189	3	0.0	0.0	0.0	0.0	1	1.0	0.0	13.8	7	1.1	0.9				
	190	1	16.79	4.78	0.0	0.0	1	1.0	0.0	115.0	6	1.1	0.9				
	191	1	7.23	2.06	0.0	0.0	1	1.0	0.0	115.0	5	1.1	0.9				
	192	1	52.74	15.03	0.0	0.0	1	1.0	0.0	115.0	7	1.1	0.9				
	193	1	21.99	6.27	0.0	0.0	1	1.0	0.0	115.0	2	1.1	0.9				
	194	1	37.57	10.71	0.0	50.0	1	1.0	0.0	115.0	3	1.1	0.9				
	195	1	0.0	0.0	0.0	0.0	1	1.0	0.0	115.0	6	1.1	0.9				
	196	1	0.0	0.0	0.0	0.0	1	1.0	0.0	13.8	6	1.1	0.9				
	197	1	0.0	0.0	0.0	0.0	1	1.0	0.0	13.8	6	1.1	0.9				
	198	1	5.37	1.53	0.0	0.0	1	1.0	0.0	115.0	2	1.1	0.9				
	199	1	4.26	1.21	0.0	0.0	1	1.0	0.0	115.0	6	1.1	0.9				
	200	1	9.34	2.66	0.0	0.0	1	1.0	0.0	115.0	4	1.1	0.9				
];

%%	 generator data
%    bus    Pg    Qg    Qmax    Qmin    Vg    mBase    status    Pmax    Pmin    Pc1    Pc2    Qc1min    Qc1max    Qc2min    Qc2max    ramp_agc    ramp_10    ramp_30    ramp_q    apf
mpc.gen = [
	49	2.945	0.78	2.11	-0.55	1.0	5.44	1	4.53	1.36															
	50	2.945	0.78	2.11	-0.55	1.0	5.44	1	4.53	1.36															
	51	2.945	0.78	2.11	-0.55	1.0	5.44	1	4.53	1.36															
	52	2.945	0.78	2.11	-0.55	1.0	5.44	1	4.53	1.36															
	53	5.895	1.56	4.23	-1.11	1.0	10.88	1	9.07	2.72															
	65	86.5	5.19	32.04	-21.66	1.0	180.48	1	86.5	86.5															
	67	3.055	0.81	2.19	-0.57	1.0	5.64	1	4.7	1.41															
	68	18.15	4.8	13.01	-3.41	1.0	33.5	1	27.92	8.38															
	69	18.15	4.8	13.01	-3.41	1.0	33.5	1	27.92	8.38															
	70	18.15	4.8	13.01	-3.41	1.0	33.5	1	27.92	8.38															
	71	18.15	4.8	13.01	-3.41	1.0	33.5	1	27.92	8.38															
	72	18.15	4.8	13.01	-3.41	1.0	33.5	1	27.92	8.38															
	73	18.15	4.8	13.01	-3.41	1.0	33.5	1	27.92	8.38															
	76	2.6	0.8	2.04	-0.44	1.0	4.8	1	4.0	1.2															
	77	1.56	0.475	1.22	-0.27	1.0	2.88	1	2.4	0.72															
	78	0.0	0.0	9.16	-2.0	1.0	21.6	0	18.0	5.4															
	79	0.0	0.0	9.16	-2.0	1.0	21.6	0	18.0	5.4															
	90	2.08	0.635	1.63	-0.36	1.0	3.84	1	3.2	0.96															
	91	3.25	1.0	2.55	-0.55	1.0	6.0	1	5.0	1.5															
	92	0.0	0.0	3.21	-0.7	1.0	7.56	0	6.3	1.89															
	94	11.7	3.095	8.39	-2.2	1.0	21.6	1	18.0	5.4															
	104	67.6	3.415	21.09	-14.26	1.0	118.8	1	67.6	67.6															
	105	154.8	6.83	42.17	-28.51	1.0	237.6	1	154.802	154.798															
	114	1.4	0.06	0.36	-0.24	1.0	2.04	1	1.4	1.4															
	115	133.5	5.175	31.95	-21.6	1.0	180.0	1	133.502	133.498															
	125	84.535	22.365	60.6	-15.87	1.0	156.06	1	130.05	39.02															
	126	84.535	22.365	60.6	-15.87	1.0	156.06	1	130.05	39.02															
	127	84.535	22.365	60.6	-15.87	1.0	156.06	1	130.05	39.02															
	135	290.16	76.78	208.02	-54.46	1.0	535.68	1	446.4	133.92															
	136	290.16	76.78	208.02	-54.46	1.0	535.68	1	446.4	133.92															
	147	92.4	3.47	21.41	-14.47	1.0	120.6	1	92.4	92.4															
	151	3.51	0.93	2.52	-0.66	1.0	6.48	1	5.4	1.62															
	152	50.195	13.285	35.99	-9.42	1.0	92.67	1	77.22	23.17															
	153	50.195	13.285	35.99	-9.42	1.0	92.67	1	77.22	23.17															
	154	50.195	13.285	35.99	-9.42	1.0	92.67	1	77.22	23.17															
	155	50.195	13.285	35.99	-9.42	1.0	92.67	1	77.22	23.17															
	161	0.0	0.0	70.55	-15.38	1.0	166.32	0	138.6	41.58															
	164	0.0	0.0	6.11	-1.33	1.0	14.4	0	12.0	3.6															
	165	0.0	0.0	13.23	-2.89	1.0	31.2	0	26.0	7.8															
	166	0.0	0.0	4.78	-1.04	1.0	11.28	0	9.4	2.82															
	167	6.11	1.87	4.78	-1.04	1.0	11.28	1	9.4	2.82															
	168	0.0	0.0	4.78	-1.04	1.0	11.28	0	9.4	2.82															
	169	0.0	0.0	4.78	-1.04	1.0	11.28	0	9.4	2.82															
	170	6.11	1.87	4.78	-1.04	1.0	11.28	1	9.4	2.82															
	182	11.375	3.01	8.16	-2.14	1.0	21.0	1	17.5	5.25															
	183	17.29	4.575	12.4	-3.25	1.0	31.92	1	26.6	7.98															
	189	369.95	81.39	209.45	-46.67	1.0	682.98	1	569.15	170.75															
	196	0.0	0.0	34.36	-7.49	1.0	81.0	0	67.5	20.25															
	197	0.0	0.0	34.36	-7.49	1.0	81.0	0	67.5	20.25															
];

%%	 branch data
%    f_bus    t_bus    r    x    b    rateA    rateB    rateC    ratio    angle    status    angmin    angmax
mpc.branch = [
	2	1	0.00067	0.00334	0.0	100.0	100.0	100.0	0	0	1	-30.0	30.0								
	1	119	0.01854	0.11976	0.02285	221.1	221.1	221.1	0	0	1	-30.0	30.0								
	124	1	0.00562	0.03627	0.00692	221.1	221.1	221.1	0	0	1	-30.0	30.0								
	193	1	0.00426	0.0275	0.00525	221.1	221.1	221.1	0	0	1	-30.0	30.0								
	4	3	0.00057	0.0033	0.0	100.0	100.0	100.0	0	0	1	-30.0	30.0								
	57	3	0.0085	0.0581	0.00988	221.1	221.1	221.1	0	0	1	-30.0	30.0								
	3	137	0.00589	0.03804	0.00726	221.1	221.1	221.1	0	0	1	-30.0	30.0								
	6	5	0.00069	0.00334	0.0	100.0	100.0	100.0	0	0	1	-30.0	30.0								
	48	5	0.00625	0.04351	0.00711	221.1	221.1	221.1	0	0	1	-30.0	30.0								
	5	64	0.00788	0.05488	0.00897	221.1	221.1	221.1	0	0	1	-30.0	30.0								
	8	7	0.00063	0.00319	0.0	100.0	100.0	100.0	0	0	1	-30.0	30.0								
	7	86	0.00376	0.02426	0.00463	221.1	221.1	221.1	0	0	1	-30.0	30.0								
	7	101	0.0036	0.02323	0.00443	221.1	221.1	221.1	0	0	1	-30.0	30.0								
	7	148	0.00867	0.05598	0.01068	221.1	221.1	221.1	0	0	1	-30.0	30.0								
	10	9	0.00058	0.00397	0.0	100.0	100.0	100.0	0	0	1	-30.0	30.0								
	9	124	0.00807	0.05512	0.00938	221.1	221.1	221.1	0	0	1	-30.0	30.0								
	131	9	0.00414	0.02673	0.0051	221.1	221.1	221.1	0	0	1	-30.0	30.0								
	9	141	0.00445	0.03097	0.00506	221.1	221.1	221.1	0	0	1	-30.0	30.0								
	9	193	0.0037	0.02524	0.00429	221.1	221.1	221.1	0	0	1	-30.0	30.0								
	12	11	0.00053	0.00353	0.0	100.0	100.0	100.0	0	0	1	-30.0	30.0								
	13	11	0.00062	0.00361	0.0	100.0	100.0	100.0	0	0	1	-30.0	30.0								
	11	15	0.01041	0.06722	0.01282	221.1	221.1	221.1	0	0	1	-30.0	30.0								
	11	93	0.01839	0.12814	0.02095	221.1	221.1	221.1	0	0	1	-30.0	30.0								
	158	11	0.00852	0.0582	0.0099	221.1	221.1	221.1	0	0	1	-30.0	30.0								
	15	14	0.00064	0.02753	0.0	300.0	300.0	300.0	1.0	0.0	1	-30.0	30.0								
	14	121	0.00701	0.0501	0.09134	402.36	402.36	402.36	0	0	1	-30.0	30.0								
	14	149	0.00913	0.06524	0.11895	402.36	402.36	402.36	0	0	1	-30.0	30.0								
	16	15	0.00055	0.0032	0.0	100.0	100.0	100.0	0	0	1	-30.0	30.0								
	18	17	0.0005	0.00393	0.0	100.0	100.0	100.0	0	0	1	-30.0	30.0								
	19	17	0.00051	0.00308	0.0	100.0	100.0	100.0	0	0	1	-30.0	30.0								
	20	17	0.00062	0.00334	0.0	100.0	100.0	100.0	0	0	1	-30.0	30.0								
	21	17	0.00062	0.00394	0.0	100.0	100.0	100.0	0	0	1	-30.0	30.0								
	109	17	0.00979	0.0682	0.01115	221.1	221.1	221.1	0	0	1	-30.0	30.0								
	17	120	0.01032	0.07047	0.01199	221.1	221.1	221.1	0	0	1	-30.0	30.0								
	23	22	0.00062	0.00322	0.0	100.0	100.0	100.0	0	0	1	-30.0	30.0								
	24	22	0.00069	0.00307	0.0	100.0	100.0	100.0	0	0	1	-30.0	30.0								
	22	27	0.01138	0.07349	0.01402	221.1	221.1	221.1	0	0	1	-30.0	30.0								
	158	22	0.0127	0.08677	0.01476	221.1	221.1	221.1	0	0	1	-30.0	30.0								
	26	25	0.00061	0.00307	0.0	100.0	100.0	100.0	0	0	1	-30.0	30.0								
	25	64	0.00764	0.05324	0.0087	221.1	221.1	221.1	0	0	1	-30.0	30.0								
	199	25	0.00991	0.064	0.01221	221.1	221.1	221.1	0	0	1	-30.0	30.0								
	28	27	0.00059	0.00396	0.0	100.0	100.0	100.0	0	0	1	-30.0	30.0								
	27	93	0.02517	0.17536	0.02867	221.1	221.1	221.1	0	0	1	-30.0	30.0								
	27	158	0.02043	0.13194	0.02517	221.1	221.1	221.1	0	0	1	-30.0	30.0								
	30	29	0.00069	0.00313	0.0	100.0	100.0	100.0	0	0	1	-30.0	30.0								
	124	29	0.00556	0.03874	0.00633	221.1	221.1	221.1	0	0	1	-30.0	30.0								
	29	140	0.00789	0.055	0.00899	221.1	221.1	221.1	0	0	1	-30.0	30.0								
	32	31	0.00067	0.00388	0.0	100.0	100.0	100.0	0	0	1	-30.0	30.0								
	33	31	0.00053	0.00364	0.0	100.0	100.0	100.0	0	0	1	-30.0	30.0								
	177	31	0.00841	0.05856	0.00957	221.1	221.1	221.1	0	0	1	-30.0	30.0								
	192	31	0.00809	0.05525	0.0094	221.1	221.1	221.1	0	0	1	-30.0	30.0								
	35	34	0.00058	0.00367	0.0	100.0	100.0	100.0	0	0	1	-30.0	30.0								
	34	54	0.00627	0.04282	0.00729	221.1	221.1	221.1	0	0	1	-30.0	30.0								
	34	137	0.00691	0.04464	0.00852	221.1	221.1	221.1	0	0	1	-30.0	30.0								
	37	36	0.00055	0.00333	0.0	100.0	100.0	100.0	0	0	1	-30.0	30.0								
	38	36	0.00067	0.00351	0.0	100.0	100.0	100.0	0	0	1	-30.0	30.0								
	58	36	0.01089	0.07439	0.01266	221.1	221.1	221.1	0	0	1	-30.0	30.0								
	83	36	0.00962	0.06699	0.01095	221.1	221.1	221.1	0	0	1	-30.0	30.0								
	40	39	0.0005	0.0031	0.0	100.0	100.0	100.0	0	0	1	-30.0	30.0								
	39	85	0.0087	0.06062	0.00991	221.1	221.1	221.1	0	0	1	-30.0	30.0								
	159	39	0.00733	0.05108	0.00835	221.1	221.1	221.1	0	0	1	-30.0	30.0								
	41	100	0.0046	0.02968	0.00566	221.1	221.1	221.1	0	0	1	-30.0	30.0								
	41	163	0.00316	0.02162	0.00368	221.1	221.1	221.1	0	0	1	-30.0	30.0								
	41	180	0.00941	0.06077	0.01159	221.1	221.1	221.1	0	0	1	-30.0	30.0								
	44	42	0.01226	0.08538	0.01396	221.1	221.1	221.1	0	0	1	-30.0	30.0								
	181	42	0.00801	0.05579	0.00912	221.1	221.1	221.1	0	0	1	-30.0	30.0								
	43	84	0.00751	0.0513	0.00873	221.1	221.1	221.1	0	0	1	-30.0	30.0								
	43	132	0.01105	0.0755	0.01285	221.1	221.1	221.1	0	0	1	-30.0	30.0								
	44	200	0.01481	0.1012	0.01722	221.1	221.1	221.1	0	0	1	-30.0	30.0								
	46	45	0.00094	0.0492	0.0	160.0	160.0	160.0	1.0	0.0	1	-30.0	30.0								
	55	45	0.00259	0.01853	0.03378	402.36	402.36	402.36	0	0	1	-30.0	30.0								
	102	45	0.0029	0.02072	0.03777	402.36	402.36	402.36	0	0	1	-30.0	30.0								
	45	187	0.00347	0.02482	0.04525	402.36	402.36	402.36	0	0	1	-30.0	30.0								
	61	46	0.00697	0.04856	0.00794	221.1	221.1	221.1	0	0	1	-30.0	30.0								
	122	46	0.01013	0.06542	0.01248	221.1	221.1	221.1	0	0	1	-30.0	30.0								
	47	54	0.00668	0.04562	0.00776	221.1	221.1	221.1	0	0	1	-30.0	30.0								
	47	66	0.00734	0.0474	0.00904	221.1	221.1	221.1	0	0	1	-30.0	30.0								
	49	48	0.02715	0.53202	0.0	28.9	28.9	28.9	1.0	0.0	1	-30.0	30.0								
	50	48	0.02172	0.40417	0.0	28.7	28.7	28.7	1.0	0.0	1	-30.0	30.0								
	51	48	0.02715	0.61271	0.0	24.3	24.3	24.3	1.0	0.0	1	-30.0	30.0								
	52	48	0.02172	0.37982	0.0	24.3	24.3	24.3	1.0	0.0	1	-30.0	30.0								
	53	48	0.02121	0.57655	0.0	35.3	35.3	35.3	1.0	0.0	1	-30.0	30.0								
	48	74	0.00796	0.05437	0.00925	221.1	221.1	221.1	0	0	1	-30.0	30.0								
	54	66	0.00705	0.04554	0.00869	221.1	221.1	221.1	0	0	1	-30.0	30.0								
	56	55	0.00515	0.12465	0.0	160.0	160.0	160.0	1.0	0.0	1	-30.0	30.0								
	81	55	0.00547	0.03905	0.0712	402.36	402.36	402.36	0	0	1	-30.0	30.0								
	55	102	0.00125	0.0089	0.01623	402.36	402.36	402.36	0	0	1	-30.0	30.0								
	55	112	0.00417	0.02976	0.05426	402.36	402.36	402.36	0	0	1	-30.0	30.0								
	55	128	0.00342	0.0244	0.04448	402.36	402.36	402.36	0	0	1	-30.0	30.0								
	56	103	0.00428	0.02983	0.00488	221.1	221.1	221.1	0	0	1	-30.0	30.0								
	57	159	0.00752	0.05137	0.00874	221.1	221.1	221.1	0	0	1	-30.0	30.0								
	95	58	0.00984	0.06353	0.01212	221.1	221.1	221.1	0	0	1	-30.0	30.0								
	177	58	0.01405	0.09597	0.01633	221.1	221.1	221.1	0	0	1	-30.0	30.0								
	59	119	0.01121	0.0724	0.01381	221.1	221.1	221.1	0	0	1	-30.0	30.0								
	59	139	0.00966	0.06243	0.01191	221.1	221.1	221.1	0	0	1	-30.0	30.0								
	60	97	0.01227	0.07928	0.01512	221.1	221.1	221.1	0	0	1	-30.0	30.0								
	134	60	0.00901	0.06275	0.01026	221.1	221.1	221.1	0	0	1	-30.0	30.0								
	61	103	0.00654	0.04556	0.00745	221.1	221.1	221.1	0	0	1	-30.0	30.0								
	159	62	0.00863	0.05898	0.01003	221.1	221.1	221.1	0	0	1	-30.0	30.0								
	160	62	0.00763	0.05314	0.00869	221.1	221.1	221.1	0	0	1	-30.0	30.0								
	63	66	0.01195	0.08324	0.01361	221.1	221.1	221.1	0	0	1	-30.0	30.0								
	63	184	0.01796	0.11602	0.02214	221.1	221.1	221.1	0	0	1	-30.0	30.0								
	65	64	0.00128	0.10157	0.0	195.5	195.5	195.5	1.0	0.0	1	-30.0	30.0								
	67	66	0.02095	0.14479	0.0	30.0	30.0	30.0	1.0	0.0	1	-30.0	30.0								
	68	66	0.00689	0.265	0.0	73.0	73.0	73.0	1.0	0.0	1	-30.0	30.0								
	69	66	0.00441	0.09499	0.0	70.5	70.5	70.5	1.0	0.0	1	-30.0	30.0								
	70	66	0.00689	0.19945	0.0	70.5	70.5	70.5	1.0	0.0	1	-30.0	30.0								
	71	66	0.00353	0.08154	0.0	68.0	68.0	68.0	1.0	0.0	1	-30.0	30.0								
	72	66	0.00353	0.0746	0.0	68.0	68.0	68.0	1.0	0.0	1	-30.0	30.0								
	73	66	0.00689	0.14642	0.0	65.0	65.0	65.0	1.0	0.0	1	-30.0	30.0								
	66	158	0.00499	0.03225	0.00615	221.1	221.1	221.1	0	0	1	-30.0	30.0								
	74	190	0.00889	0.06076	0.01034	221.1	221.1	221.1	0	0	1	-30.0	30.0								
	76	75	0.03846	0.78433	0.0	24.3	24.3	24.3	1.0	0.0	1	-30.0	30.0								
	77	75	0.08013	2.19211	0.0	7.4	7.4	7.4	1.0	0.0	1	-30.0	30.0								
	78	75	0.00854	0.18141	0.0	65.0	65.0	65.0	1.0	0.0	1	-30.0	30.0								
	79	75	0.01068	0.27777	0.0	62.1	62.1	62.1	1.0	0.0	1	-30.0	30.0								
	108	75	0.01099	0.07097	0.01354	221.1	221.1	221.1	0	0	1	-30.0	30.0								
	75	157	0.01349	0.08711	0.01662	221.1	221.1	221.1	0	0	1	-30.0	30.0								
	80	100	0.02146	0.14952	0.02444	221.1	221.1	221.1	0	0	1	-30.0	30.0								
	80	143	0.02059	0.14347	0.02345	221.1	221.1	221.1	0	0	1	-30.0	30.0								
	82	81	0.00097	0.04237	0.0	250.0	250.0	250.0	1.0	0.0	1	-30.0	30.0								
	81	178	0.0066	0.04714	0.08594	402.36	402.36	402.36	0	0	1	-30.0	30.0								
	82	195	0.00384	0.02626	0.00447	221.1	221.1	221.1	0	0	1	-30.0	30.0								
	83	146	0.00538	0.03677	0.00626	221.1	221.1	221.1	0	0	1	-30.0	30.0								
	83	186	0.00792	0.05517	0.00902	221.1	221.1	221.1	0	0	1	-30.0	30.0								
	84	113	0.00665	0.04544	0.00773	221.1	221.1	221.1	0	0	1	-30.0	30.0								
	85	120	0.00779	0.05029	0.00959	221.1	221.1	221.1	0	0	1	-30.0	30.0								
	86	101	0.00512	0.03307	0.00631	221.1	221.1	221.1	0	0	1	-30.0	30.0								
	142	86	0.00339	0.02314	0.00394	221.1	221.1	221.1	0	0	1	-30.0	30.0								
	86	193	0.00661	0.04266	0.00814	221.1	221.1	221.1	0	0	1	-30.0	30.0								
	88	87	0.00083	0.03419	0.0	350.0	350.0	350.0	1.0	0.0	1	-30.0	30.0								
	149	87	0.00162	0.01158	0.02111	402.36	402.36	402.36	0	0	1	-30.0	30.0								
	88	150	0.00557	0.03597	0.00686	221.1	221.1	221.1	0	0	1	-30.0	30.0								
	176	88	0.00386	0.02492	0.00475	221.1	221.1	221.1	0	0	1	-30.0	30.0								
	88	194	0.00426	0.02909	0.00495	221.1	221.1	221.1	0	0	1	-30.0	30.0								
	90	89	0.0601	2.27992	0.0	8.6	8.6	8.6	1.0	0.0	1	-30.0	30.0								
	91	89	0.02461	0.50342	0.0	32.0	32.0	32.0	1.0	0.0	1	-30.0	30.0								
	92	89	0.01954	0.36204	0.0	35.3	35.3	35.3	1.0	0.0	1	-30.0	30.0								
	89	95	0.00873	0.05641	0.01076	221.1	221.1	221.1	0	0	1	-30.0	30.0								
	188	89	0.00805	0.052	0.00992	221.1	221.1	221.1	0	0	1	-30.0	30.0								
	94	93	0.01068	0.2806	0.0	62.1	62.1	62.1	1.0	0.0	1	-30.0	30.0								
	93	191	0.02209	0.14266	0.02722	221.1	221.1	221.1	0	0	1	-30.0	30.0								
	122	96	0.01062	0.07399	0.01209	221.1	221.1	221.1	0	0	1	-30.0	30.0								
	96	143	0.01586	0.10242	0.01954	221.1	221.1	221.1	0	0	1	-30.0	30.0								
	96	188	0.0109	0.07042	0.01343	221.1	221.1	221.1	0	0	1	-30.0	30.0								
	97	200	0.01318	0.08512	0.01624	221.1	221.1	221.1	0	0	1	-30.0	30.0								
	99	98	0.00064	0.03052	0.0	250.0	250.0	250.0	1.0	0.0	1	-30.0	30.0								
	98	123	0.0047	0.03357	0.06121	402.36	402.36	402.36	0	0	1	-30.0	30.0								
	99	142	0.0076	0.05298	0.00866	221.1	221.1	221.1	0	0	1	-30.0	30.0								
	100	174	0.0107	0.07453	0.01218	221.1	221.1	221.1	0	0	1	-30.0	30.0								
	100	179	0.00709	0.04941	0.00808	221.1	221.1	221.1	0	0	1	-30.0	30.0								
	100	184	0.01274	0.08879	0.01451	221.1	221.1	221.1	0	0	1	-30.0	30.0								
	110	101	0.00196	0.01266	0.00241	221.1	221.1	221.1	0	0	1	-30.0	30.0								
	101	117	0.00524	0.03583	0.0061	221.1	221.1	221.1	0	0	1	-30.0	30.0								
	101	141	0.00314	0.0203	0.00387	221.1	221.1	221.1	0	0	1	-30.0	30.0								
	103	102	0.00171	0.05458	0.0	250.0	250.0	250.0	1.0	0.0	1	-30.0	30.0								
	104	102	0.0021	0.08775	0.0	130.0	130.0	130.0	1.0	0.0	1	-30.0	30.0								
	105	102	0.00097	0.05942	0.0	260.0	260.0	260.0	1.0	0.0	1	-30.0	30.0								
	102	128	0.0027	0.01929	0.03517	402.36	402.36	402.36	0	0	1	-30.0	30.0								
	103	106	0.00775	0.05399	0.00883	221.1	221.1	221.1	0	0	1	-30.0	30.0								
	130	106	0.00699	0.04776	0.00813	221.1	221.1	221.1	0	0	1	-30.0	30.0								
	107	113	0.00675	0.0461	0.00784	221.1	221.1	221.1	0	0	1	-30.0	30.0								
	107	129	0.00517	0.03531	0.00601	221.1	221.1	221.1	0	0	1	-30.0	30.0								
	192	107	0.00394	0.02544	0.00485	221.1	221.1	221.1	0	0	1	-30.0	30.0								
	108	198	0.02479	0.16013	0.03055	221.1	221.1	221.1	0	0	1	-30.0	30.0								
	186	109	0.00877	0.05994	0.0102	221.1	221.1	221.1	0	0	1	-30.0	30.0								
	110	193	0.00344	0.02224	0.00424	221.1	221.1	221.1	0	0	1	-30.0	30.0								
	163	111	0.00528	0.03411	0.00651	221.1	221.1	221.1	0	0	1	-30.0	30.0								
	111	175	0.00795	0.05539	0.00905	221.1	221.1	221.1	0	0	1	-30.0	30.0								
	113	112	0.00208	0.05862	0.0	350.0	350.0	350.0	1.0	0.0	1	-30.0	30.0								
	114	112	0.06	0.43401	0.0	20.0	20.0	20.0	1.0	0.0	1	-30.0	30.0								
	115	112	0.00128	0.06277	0.0	200.0	200.0	200.0	1.0	0.0	1	-30.0	30.0								
	128	112	0.0013	0.00925	0.01687	402.36	402.36	402.36	0	0	1	-30.0	30.0								
	113	192	0.00542	0.035	0.00668	221.1	221.1	221.1	0	0	1	-30.0	30.0								
	117	116	0.00052	0.03494	0.0	300.0	300.0	300.0	1.0	0.0	1	-30.0	30.0								
	133	116	0.00389	0.02779	0.05067	402.36	402.36	402.36	0	0	1	-30.0	30.0								
	117	132	0.01191	0.08298	0.01357	221.1	221.1	221.1	0	0	1	-30.0	30.0								
	117	162	0.01617	0.10444	0.01993	221.1	221.1	221.1	0	0	1	-30.0	30.0								
	131	118	0.00718	0.04638	0.00885	221.1	221.1	221.1	0	0	1	-30.0	30.0								
	118	134	0.0116	0.0808	0.01321	221.1	221.1	221.1	0	0	1	-30.0	30.0								
	118	198	0.00949	0.06481	0.01103	221.1	221.1	221.1	0	0	1	-30.0	30.0								
	122	121	0.00079	0.06302	0.0	200.0	200.0	200.0	1.0	0.0	1	-30.0	30.0								
	121	178	0.0089	0.0636	0.11596	402.36	402.36	402.36	0	0	1	-30.0	30.0								
	187	121	0.00106	0.00759	0.01384	402.36	402.36	402.36	0	0	1	-30.0	30.0								
	124	123	0.00033	0.01748	0.0	400.0	400.0	400.0	1.0	0.0	1	-30.0	30.0								
	125	123	0.00448	0.10456	0.0	170.0	170.0	170.0	1.0	0.0	1	-30.0	30.0								
	126	123	0.00148	0.06604	0.0	170.0	170.0	170.0	1.0	0.0	1	-30.0	30.0								
	127	123	0.001	0.03169	0.0	170.0	170.0	170.0	1.0	0.0	1	-30.0	30.0								
	123	133	0.00146	0.01042	0.019	402.36	402.36	402.36	0	0	1	-30.0	30.0								
	156	123	0.00112	0.00798	0.01455	402.36	402.36	402.36	0	0	1	-30.0	30.0								
	124	193	0.00658	0.04582	0.00749	221.1	221.1	221.1	0	0	1	-30.0	30.0								
	129	128	0.00075	0.04445	0.0	250.0	250.0	250.0	1.0	0.0	1	-30.0	30.0								
	128	133	0.00955	0.06826	0.12444	402.36	402.36	402.36	0	0	1	-30.0	30.0								
	130	144	0.02268	0.15799	0.02583	221.1	221.1	221.1	0	0	1	-30.0	30.0								
	134	133	0.0002	0.01333	0.0	400.0	400.0	400.0	1.0	0.0	1	-30.0	30.0								
	135	133	0.00043	0.03351	0.0	580.0	580.0	580.0	1.0	0.0	1	-30.0	30.0								
	136	133	0.00043	0.02748	0.0	580.0	580.0	580.0	1.0	0.0	1	-30.0	30.0								
	156	133	0.00196	0.01398	0.0255	402.36	402.36	402.36	0	0	1	-30.0	30.0								
	134	140	0.01044	0.07136	0.01214	221.1	221.1	221.1	0	0	1	-30.0	30.0								
	134	186	0.01446	0.09341	0.01782	221.1	221.1	221.1	0	0	1	-30.0	30.0								
	138	139	0.02648	0.18446	0.03015	221.1	221.1	221.1	0	0	1	-30.0	30.0								
	138	195	0.00873	0.05637	0.01075	221.1	221.1	221.1	0	0	1	-30.0	30.0								
	141	148	0.01019	0.06582	0.01256	221.1	221.1	221.1	0	0	1	-30.0	30.0								
	141	193	0.0029	0.0187	0.00357	221.1	221.1	221.1	0	0	1	-30.0	30.0								
	162	144	0.00696	0.0485	0.00793	221.1	221.1	221.1	0	0	1	-30.0	30.0								
	145	176	0.0088	0.06011	0.01023	221.1	221.1	221.1	0	0	1	-30.0	30.0								
	185	145	0.01084	0.07551	0.01234	221.1	221.1	221.1	0	0	1	-30.0	30.0								
	147	146	0.0025	0.10181	0.0	130.6	130.6	130.6	1.0	0.0	1	-30.0	30.0								
	146	177	0.01106	0.07708	0.0126	221.1	221.1	221.1	0	0	1	-30.0	30.0								
	150	149	0.00041	0.02025	0.0	400.0	400.0	400.0	1.0	0.0	1	-30.0	30.0								
	151	149	0.02267	0.62552	0.0	20.0	20.0	20.0	1.0	0.0	1	-30.0	30.0								
	152	149	0.00249	0.14169	0.0	100.0	100.0	100.0	1.0	0.0	1	-30.0	30.0								
	153	149	0.00549	0.1846	0.0	100.0	100.0	100.0	1.0	0.0	1	-30.0	30.0								
	154	149	0.00249	0.10294	0.0	100.0	100.0	100.0	1.0	0.0	1	-30.0	30.0								
	155	149	0.00249	0.09984	0.0	100.0	100.0	100.0	1.0	0.0	1	-30.0	30.0								
	185	150	0.01346	0.09193	0.01564	221.1	221.1	221.1	0	0	1	-30.0	30.0								
	194	150	0.00314	0.02144	0.00365	221.1	221.1	221.1	0	0	1	-30.0	30.0								
	157	156	0.00059	0.04565	0.0	300.0	300.0	300.0	1.0	0.0	1	-30.0	30.0								
	161	160	0.00139	0.08029	0.0	180.2	180.2	180.2	1.0	0.0	1	-30.0	30.0								
	160	181	0.0043	0.02934	0.00499	221.1	221.1	221.1	0	0	1	-30.0	30.0								
	164	163	0.00821	0.11301	0.0	58.1	58.1	58.1	1.0	0.0	1	-30.0	30.0								
	165	163	0.0074	0.30166	0.0	65.0	65.0	65.0	1.0	0.0	1	-30.0	30.0								
	166	163	0.01637	0.38208	0.0	42.0	42.0	42.0	1.0	0.0	1	-30.0	30.0								
	167	163	0.01048	0.1965	0.0	42.0	42.0	42.0	1.0	0.0	1	-30.0	30.0								
	168	163	0.018	0.49098	0.0	40.0	40.0	40.0	1.0	0.0	1	-30.0	30.0								
	169	163	0.01637	0.39642	0.0	40.0	40.0	40.0	1.0	0.0	1	-30.0	30.0								
	170	163	0.01637	0.3749	0.0	35.6	35.6	35.6	1.0	0.0	1	-30.0	30.0								
	163	179	0.00579	0.03956	0.00673	221.1	221.1	221.1	0	0	1	-30.0	30.0								
	171	190	0.00987	0.0674	0.01147	221.1	221.1	221.1	0	0	1	-30.0	30.0								
	195	171	0.01164	0.08112	0.01326	221.1	221.1	221.1	0	0	1	-30.0	30.0								
	180	172	0.0153	0.10656	0.01742	221.1	221.1	221.1	0	0	1	-30.0	30.0								
	199	172	0.024	0.15504	0.02958	221.1	221.1	221.1	0	0	1	-30.0	30.0								
	173	174	0.01537	0.09929	0.01894	221.1	221.1	221.1	0	0	1	-30.0	30.0								
	173	175	0.00857	0.05536	0.01056	221.1	221.1	221.1	0	0	1	-30.0	30.0								
	174	188	0.01795	0.12264	0.02087	221.1	221.1	221.1	0	0	1	-30.0	30.0								
	179	178	0.0005	0.03616	0.0	250.0	250.0	250.0	1.0	0.0	1	-30.0	30.0								
	180	191	0.02639	0.18387	0.03006	221.1	221.1	221.1	0	0	1	-30.0	30.0								
	180	199	0.01218	0.0787	0.01501	221.1	221.1	221.1	0	0	1	-30.0	30.0								
	182	181	0.01099	0.29775	0.0	60.3	60.3	60.3	1.0	0.0	1	-30.0	30.0								
	183	181	0.00463	0.11425	0.0	65.0	65.0	65.0	1.0	0.0	1	-30.0	30.0								
	181	194	0.00439	0.02838	0.00542	221.1	221.1	221.1	0	0	1	-30.0	30.0								
	188	187	0.00139	0.04476	0.0	400.0	400.0	400.0	1.0	0.0	1	-30.0	30.0								
	189	187	0.0003	0.00782	0.0	740.0	740.0	740.0	1.0	0.0	1	-30.0	30.0								
	196	195	0.00285	0.06004	0.0	87.7	87.7	87.7	1.0	0.0	1	-30.0	30.0								
	197	195	0.00285	0.19148	0.0	87.7	87.7	87.7	1.0	0.0	1	-30.0	30.0								
];

%%-----	  OPF Data  -----%%
%% cost data
%    1    startup    shutdown    n    x1    y1    ...    xn    yn
%    2    startup    shutdown    n    c(n-1)    ...    c0
mpc.gencost = [
	2	0.0	0.0	3	0.002	19.0	236.12
	2	0.0	0.0	3	0.002	19.0	236.12
	2	0.0	0.0	3	0.002	19.0	236.12
	2	0.0	0.0	3	0.002	19.0	236.12
	2	0.0	0.0	3	0.002	19.0	236.24
	2	0.0	0.0	3	0.0	0.0	0.0
	2	0.0	0.0	3	0.002	19.0	236.13
	2	0.0	0.0	3	0.002	19.0	236.74
	2	0.0	0.0	3	0.002	19.0	236.74
	2	0.0	0.0	3	0.002	19.0	236.74
	2	0.0	0.0	3	0.002	19.0	236.74
	2	0.0	0.0	3	0.002	19.0	236.74
	2	0.0	0.0	3	0.002	19.0	236.74
	2	0.0	0.0	3	0.002	23.157	606.0
	2	0.0	0.0	3	0.002	23.146	603.6
	2	0.0	0.0	3	0.002	23.252	627.0
	2	0.0	0.0	3	0.002	23.252	627.0
	2	0.0	0.0	3	0.002	23.152	604.8
	2	0.0	0.0	3	0.002	23.164	607.5
	2	0.0	0.0	3	0.002	23.173	609.45
	2	0.0	0.0	3	0.002	19.0	236.48
	2	0.0	0.0	3	0.0	0.0	0.0
	2	0.0	0.0	3	0.0	0.0	0.0
	2	0.0	0.0	3	0.0	0.0	0.0
	2	0.0	0.0	3	0.0	0.0	0.0
	2	0.0	0.0	3	0.002	19.0	610.14
	2	0.0	0.0	3	0.002	19.0	610.14
	2	0.0	0.0	3	0.002	19.0	610.14
	2	0.0	0.0	3	0.002	19.0	1261.33
	2	0.0	0.0	3	0.002	19.0	1261.33
	2	0.0	0.0	3	0.0	0.0	0.0
	2	0.0	0.0	3	0.002	19.0	236.14
	2	0.0	0.0	3	0.002	19.0	253.01
	2	0.0	0.0	3	0.002	19.0	253.01
	2	0.0	0.0	3	0.002	19.0	253.01
	2	0.0	0.0	3	0.002	19.0	253.01
	2	0.0	0.0	3	0.002	24.07	807.9
	2	0.0	0.0	3	0.002	23.211	618.0
	2	0.0	0.0	3	0.002	23.306	639.0
	2	0.0	0.0	3	0.002	23.194	614.1
	2	0.0	0.0	3	0.002	23.194	614.1
	2	0.0	0.0	3	0.002	23.194	614.1
	2	0.0	0.0	3	0.002	23.194	614.1
	2	0.0	0.0	3	0.002	23.194	614.1
	2	0.0	0.0	3	0.002	19.0	236.47
	2	0.0	0.0	3	0.002	19.0	236.71
	2	0.0	0.0	3	0.0	6.71	1272.13
	2	0.0	0.0	3	0.002	23.588	701.25
	2	0.0	0.0	3	0.002	23.588	701.25
];

	 